PERFORM/On Peak 2019 v23_Perform_NY/On Peak 2019 v23/On Peak 2019 v22/v22bus.csv
Name,bus_i,type,Pd,Qd,Gs,Bs,area,Vm,Va,baseKV,zone,Vmax,Vmin
MORTIMER,1,1,115.187991,0,0,0,66,1.00316807202409,90.8991679274491,115,66,1.1,0.9
UNKNOWN124116,2,1,1.538569,0,0,0,70,1.00725309486078,77.5373465799963,69,70,1.1,0.9
UNKNOWN124120,3,1,3.421778,0,0,0,70,1.00904620140417,82.9350005790547,115,70,1.1,0.9
UNKNOWN124121,4,1,74.046987,0,0,0,68,0.991855895794122,94.6920332344942,115,68,1.1,0.9
UNKNOWN124122,5,1,3.421778,0,0,0,70,1.00632063366079,86.3203165047424,115,70,1.1,0.9
UNKNOWN124124,6,2,3.421778,0,0,0,70,1.02,83.0153372510682,115,70,1.1,0.9
UNKNOWN124125,7,1,6.843556,0,0,0,70,1.0165813009139,82.2589804339417,115,70,1.1,0.9
UNKNOWN124127,8,1,6.843556,0,0,0,70,1.01920921877534,82.4869802217252,115,70,1.1,0.9
UNKNOWN124132,9,1,36.727503,0,0,0,71,1.01310794657212,69.3410743678629,115,71,1.1,0.9
UNKNOWN124133,10,1,14.809397,0,0,0,68,0.983569633281073,91.2487689065992,115,68,1.1,0.9
UNKNOWN124134,11,1,6.843556,0,0,0,70,1.00937439508136,82.8913731155443,115,70,1.1,0.9
UNKNOWN124137,12,1,3.421778,0,0,0,70,1.01741872151508,81.3891047551583,115,70,1.1,0.9
UNKNOWN124138,13,1,13.687113,0,0,0,70,1.01406121183765,80.5959803962829,115,70,1.1,0.9
UNKNOWN124143,14,1,4.154006,0,0,0,69,1.00648367156785,78.688386657391,115,69,1.1,0.9
UNKNOWN124145,15,2,4.154006,0,0,0,69,1.02,100.002185950897,115,69,1.1,0.9
BOONVILLE,16,1,10.385014,0,0,0,69,1.01301413453474,88.5323322445048,115,69,1.1,0.9
UNKNOWN124147,17,1,44.51853,0,0,0,75,1.01220295411878,48.8549025334995,138,75,1.1,0.9
GLENWOOD LANDING,18,1,41.736126,0,0,0,75,1.01691753667031,59.2435455729445,69,75,1.1,0.9
NORTHPORT,19,2,77.350956,0,0,0,75,1.02,60.4158671410651,115,75,1.1,0.9
UNKNOWN124156,20,1,8.308011,0,0,0,69,1.01761804482924,101.872150812222,115,69,1.1,0.9
UNKNOWN124157,21,1,8.308011,0,0,0,69,1.01829375104706,101.914907612012,115,69,1.1,0.9
UNKNOWN124159,22,1,1.538569,0,0,0,70,1.00960917881787,77.201977586385,69,70,1.1,0.9
UNKNOWN124160,23,1,10.385014,0,0,0,69,1.01605232082008,80.0673266933978,115,69,1.1,0.9
UNKNOWN124162,24,2,20.893222,0,0,0,67,1.02,98.7551035152399,115,67,1.1,0.9
UNKNOWN124163,25,1,2.077003,0,0,0,69,1.0199449337031,97.6505646577195,115,69,1.1,0.9
UNKNOWN124169,26,1,0,0,0,0,74,1.02001509143854,63.306666091628,345,74,1.1,0.9
UNKNOWN124171,27,2,8.35729,0,0,0,67,1.02,93.053400729432,115,67,1.1,0.9
UNKNOWN124172,28,1,2.077003,0,0,0,69,1.01996682811234,98.6161801598181,115,69,1.1,0.9
UNKNOWN124194,29,2,16.71458,0,0,0,67,1.02,93.4955826401373,115,67,1.1,0.9
UNKNOWN124195,30,2,8.357291,0,0,0,67,1.02,94.2414764719236,115,67,1.1,0.9
UNKNOWN124198,31,2,3.421778,0,0,0,70,1.02,83.6337308316954,115,70,1.1,0.9
UNKNOWN124199,32,2,3.421778,0,0,0,70,1.02,83.650333119764,115,70,1.1,0.9
UNKNOWN124200,33,2,5.050016,0,0,0,65,1.02,99.7474819190661,115,65,1.1,0.9
HAMMERHILL,34,2,8.35729,0,0,0,67,1.02,102.882524537473,115,67,1.1,0.9
UNKNOWN124202,35,1,35.238913,0,0,0,68,0.999210452880514,93.025409580696,115,68,1.1,0.9
UNKNOWN124203,36,1,35.23891,0,0,0,68,0.999094395832284,93.0598659581158,115,68,1.1,0.9
UNKNOWN124205,37,2,7.575025,0,0,0,65,1.02,97.0702005309492,115,65,1.1,0.9
BLISS WINDPARK,38,2,5.050016,0,0,0,65,1.02,98.2904129251611,115,65,1.1,0.9
UNKNOWN124224,39,2,0,0,0,0,65,1.02,101.867710795851,230,65,1.1,0.9
UNKNOWN124225,40,1,2.077003,0,0,0,69,1.01923987852185,104.13248594064,115,69,1.1,0.9
UNKNOWN124226,41,2,5.050016,0,0,0,65,1.02,96.1089320494475,115,65,1.1,0.9
UNKNOWN124228,42,1,17.675059,0,0,0,65,1.02001884593115,94.5962565966727,115,65,1.1,0.9
DUGAN,43,1,5.050016,0,0,0,65,1.01891440472335,94.3100636869463,115,65,1.1,0.9
UNKNOWN124230,44,1,2.525008,0,0,0,65,1.01892401691482,94.3158176617888,115,65,1.1,0.9
TAP124231,45,1,7.575025,0,0,0,65,1.01893227671489,94.3177986323928,115,65,1.1,0.9
W OLEAN,46,1,5.050016,0,0,0,65,1.01996861575811,94.5838636494625,115,65,1.1,0.9
VALLEY CAT,47,1,2.525008,0,0,0,65,1.02169143359552,94.8844400468416,115,65,1.1,0.9
MACHIAS #13,48,1,10.100032,0,0,0,65,1.01996447557492,95.1198851926147,115,65,1.1,0.9
VALLEY,49,1,4.154006,0,0,0,69,1.01786883258097,82.2967427376693,115,69,1.1,0.9
UNKNOWN124248,50,1,4.154006,0,0,0,69,1.00706312402491,99.7270738745397,115,69,1.1,0.9
UNKNOWN124251,51,1,4.178645,0,0,0,67,1.01792761223411,94.3002387713165,115,67,1.1,0.9
UNKNOWN124252,52,2,4.178645,0,0,0,67,1.02,94.7259450372602,115,67,1.1,0.9
UNKNOWN124253,53,2,8.35729,0,0,0,67,1.02,96.6338901364484,115,67,1.1,0.9
UNKNOWN124256,54,1,0,0,0,0,67,1.02674455078138,95.4869596939076,230,67,1.1,0.9
UNKNOWN124257,55,1,12.535934,0,0,0,67,1.01748729911553,91.2264876102784,115,67,1.1,0.9
UNKNOWN124258,56,1,8.35729,0,0,0,67,1.01699258341005,90.5703203778981,115,67,1.1,0.9
UNKNOWN124262,57,1,8.35729,0,0,0,67,1.01710614220972,89.926248136062,115,67,1.1,0.9
UNKNOWN124322,58,1,6.267966,0,0,0,67,1.0192714239486,102.571911036398,115,67,1.1,0.9
UNKNOWN124323,59,1,14.53902,0,0,0,69,1.02013980872693,97.6438653437855,115,69,1.1,0.9
UNKNOWN124328,60,2,1.867808,0,0,0,69,1.02,77.6213563364084,69,69,1.1,0.9
UNKNOWN124336,61,1,12.535934,0,0,0,67,1.01736979500364,89.844177118999,115,67,1.1,0.9
UNKNOWN124337,62,1,0,0,0,0,70,1.02001364181807,84.8193511746914,345,70,1.1,0.9
UNKNOWN124338,63,2,0,0,0,0,70,1.02,84.8351261682813,345,70,1.1,0.9
UNKNOWN124339,64,1,2.077003,0,0,0,69,1.00499750475565,97.1539169071005,115,69,1.1,0.9
BERRY RD,65,1,5.050016,0,0,0,65,1.02104969198273,93.6361774438577,115,65,1.1,0.9
BAKER ST,66,1,5.050016,0,0,0,65,1.01801896995556,92.5885580603574,115,65,1.1,0.9
CUMMINS,67,1,2.525008,0,0,0,65,1.01809808640549,92.5860957650041,115,65,1.1,0.9
SILVER CREEK,68,1,5.050016,0,0,0,65,1.0171430167145,93.2090877357687,115,65,1.1,0.9
FALCONER,69,2,12.62504,0,0,0,65,1.02,93.2821614707595,115,65,1.1,0.9
UNKNOWN124347,70,1,5.050016,0,0,0,65,1.01983987531309,93.2419830957017,115,65,1.1,0.9
WESTFIELD VILLAGE,71,1,7.575025,0,0,0,65,1.02259791779336,93.7822760774863,115,65,1.1,0.9
UNKNOWN124349,72,1,2.525008,0,0,0,65,1.02013027512412,93.5949575469877,115,65,1.1,0.9
LUDIUM,73,1,5.050016,0,0,0,65,1.02007553507826,93.5858788421549,115,65,1.1,0.9
BENNETT RD,74,1,10.100032,0,0,0,65,1.01989665395345,93.5619465105377,115,65,1.1,0.9
E DUNKIRK,75,1,2.525008,0,0,0,65,1.01968733907276,93.5302679662417,115,65,1.1,0.9
UNKNOWN124354,76,1,5.050016,0,0,0,65,1.01967886405506,93.5282547572256,115,65,1.1,0.9
MOON SWITCHES,77,1,12.62504,0,0,0,65,1.02037201994383,93.3686651091721,115,65,1.1,0.9
HARTFIELD,78,1,5.050016,0,0,0,65,1.0215815832002,93.5380102020837,115,65,1.1,0.9
EAST 13TH STREET,79,2,0,0,0,0,74,1.02,63.0899875608586,345,74,1.1,0.9
UNKNOWN124470,80,2,4.154006,0,0,0,69,1.02,98.6611520168995,115,69,1.1,0.9
WESTOVER,81,1,20.893224,0,0,0,67,1.02208958384285,87.684215319224,115,67,1.1,0.9
UNKNOWN124526,82,2,2.077003,0,0,0,69,1.02,86.1521462532477,115,69,1.1,0.9
UNKNOWN124528,83,2,6.231008,0,0,0,69,1.02,97.7023834248356,115,69,1.1,0.9
UNKNOWN124529,84,2,3.421778,0,0,0,70,1.02,83.5306600810803,115,70,1.1,0.9
COLD SPRING RD,85,1,2.525008,0,0,0,65,1.01789021111413,92.8698753586837,115,65,1.1,0.9
UNKNOWN124575,86,1,5.050016,0,0,0,65,1.01805519582645,95.606192908131,115,65,1.1,0.9
UNKNOWN124576,87,1,7.575025,0,0,0,65,1.0176289536243,95.7753671605231,115,65,1.1,0.9
YORKSHIRE,88,1,5.050016,0,0,0,65,1.01747777735006,96.0484635380796,115,65,1.1,0.9
ARCADE,89,1,2.525008,0,0,0,65,1.0174671684853,96.1445234105074,115,65,1.1,0.9
BIXBY HILL,90,1,5.050016,0,0,0,65,1.01763615751905,96.416516197159,115,65,1.1,0.9
UNKNOWN124580,91,1,5.050016,0,0,0,65,1.01799674002887,96.8071571104332,115,65,1.1,0.9
UNKNOWN124581,92,1,14.398499,0,0,0,66,1.01289689915441,92.5795674245907,115,66,1.1,0.9
UNKNOWN124582,93,1,14.398499,0,0,0,66,1.01869112114807,95.6387865522034,115,66,1.1,0.9
UNKNOWN124583,94,1,14.398499,0,0,0,66,1.01920175315069,98.0589304716369,115,66,1.1,0.9
UNKNOWN124584,95,2,7.199249,0,0,0,66,1.02,98.2461107606428,115,66,1.1,0.9
UNKNOWN124585,96,1,7.199249,0,0,0,66,1.01712083846279,97.5498793678824,115,66,1.1,0.9
UNKNOWN124586,97,1,14.398499,0,0,0,66,1.01718731334367,97.5658283859397,115,66,1.1,0.9
UNKNOWN124587,98,1,14.398499,0,0,0,66,1.01426418749136,93.2424675543471,115,66,1.1,0.9
UNKNOWN124588,99,1,14.398499,0,0,0,66,1.01206915634411,92.5475300700439,115,66,1.1,0.9
UNKNOWN124589,100,1,7.199249,0,0,0,66,1.01029136231921,91.9497518064918,115,66,1.1,0.9
UNKNOWN124626,101,1,5.050016,0,0,0,65,1.00101230322512,92.104133647197,115,65,1.1,0.9
N AKRON,102,1,5.050016,0,0,0,65,1.00104545950058,92.1117676151934,115,65,1.1,0.9
UNKNOWN124628,103,1,2.525008,0,0,0,65,1.00180368223395,92.3026430843771,115,65,1.1,0.9
TONAWANDA,104,1,5.050016,0,0,0,65,1.01449844938276,95.612914391109,115,65,1.1,0.9
GETZVILLE,105,1,20.200065,0,0,0,65,1.0146343247225,95.483019551841,115,65,1.1,0.9
UNKNOWN124631,106,1,5.050016,0,0,0,65,1.01524375163477,95.6139221439897,115,65,1.1,0.9
UNKNOWN124632,107,1,12.62504,0,0,0,65,1.01651266108576,95.9086243194324,115,65,1.1,0.9
UNKNOWN124634,108,1,8.35729,0,0,0,67,1.0216678471127,89.7843669590209,115,67,1.1,0.9
UNKNOWN124639,109,1,8.35729,0,0,0,67,1.02120296086609,90.0795996494152,115,67,1.1,0.9
UNKNOWN124640,110,1,12.535934,0,0,0,67,1.02002444190713,88.2150739570375,115,67,1.1,0.9
UNKNOWN124641,111,1,8.35729,0,0,0,67,1.01762075514776,89.3269674924032,115,67,1.1,0.9
UNKNOWN124642,112,1,8.35729,0,0,0,67,1.01849651575534,86.9706175624779,115,67,1.1,0.9
UNKNOWN124643,113,1,8.35729,0,0,0,67,1.01777293328752,86.9141880703222,115,67,1.1,0.9
UNKNOWN124644,114,1,8.35729,0,0,0,67,1.01802437121893,87.1032503451783,115,67,1.1,0.9
KATTELVILLE,115,1,8.35729,0,0,0,67,1.02073572572879,86.4063050967839,115,67,1.1,0.9
UNKNOWN124652,116,2,8.35729,0,0,0,67,1.02,88.1395851172078,115,67,1.1,0.9
NORTH ENDICOTT,117,1,12.535934,0,0,0,67,1.02067318372995,87.3592347424862,115,67,1.1,0.9
UNKNOWN124654,118,1,8.35729,0,0,0,67,1.01858039532089,87.0467835056769,115,67,1.1,0.9
UNKNOWN124655,119,1,8.35729,0,0,0,67,1.01836645831,87.1371094033793,115,67,1.1,0.9
UNKNOWN124656,120,1,8.35729,0,0,0,67,1.01860110589316,87.3558225365613,115,67,1.1,0.9
UNKNOWN124661,121,1,8.35729,0,0,0,67,1.01981177941629,87.183115723085,115,67,1.1,0.9
ROBBLE AVE,122,1,8.35729,0,0,0,67,1.02085755215324,87.3981053460336,115,67,1.1,0.9
CASTLE GARDENS,123,1,8.35729,0,0,0,67,1.01947791419433,87.1236004268522,115,67,1.1,0.9
UNKNOWN124668,124,1,25.071865,0,0,0,67,1.01909706093642,90.4145579496089,115,67,1.1,0.9
UNKNOWN124702,125,1,2.077003,0,0,0,69,1.01714661800818,106.89774351877,115,69,1.1,0.9
UNKNOWN124703,126,1,2.077003,0,0,0,69,1.01715012581818,106.868398401427,115,69,1.1,0.9
UNKNOWN124704,127,2,34.217778,0,0,0,70,1.02,84.4757769808718,115,70,1.1,0.9
UNKNOWN124705,128,2,43.195498,0,0,0,66,1.02,98.6261124608756,115,66,1.1,0.9
UNKNOWN124706,129,1,21.597749,0,0,0,66,1.00587567581536,88.8414011205784,115,66,1.1,0.9
UNKNOWN124708,130,1,7.199249,0,0,0,66,1.00448161249465,89.6691884477315,115,66,1.1,0.9
UNKNOWN124716,131,1,25.071868,0,0,0,67,1.01803002601109,94.3267956698602,115,67,1.1,0.9
UNKNOWN124725,132,1,0,0,0,0,67,1.02120514405981,97.2043453667821,230,67,1.1,0.9
UNKNOWN124726,133,1,12.535934,0,0,0,67,1.01791473311685,89.4854155559279,115,67,1.1,0.9
ANGOLA,134,1,12.62504,0,0,0,65,1.01413254397094,92.9349887539669,115,65,1.1,0.9
SPRINGVILLE,135,1,5.050016,0,0,0,65,1.0173031808186,95.228797412645,115,65,1.1,0.9
COBBLE HILL,136,1,5.050016,0,0,0,65,1.01714775123437,95.2921687186301,115,65,1.1,0.9
BIG TREE,137,1,5.050016,0,0,0,65,1.01972527010553,95.3575538869968,115,65,1.1,0.9
UNKNOWN124741,138,1,0,0,0,0,65,1.01954129675532,101.683405784022,230,65,1.1,0.9
PERRY #162,139,1,7.575025,0,0,0,65,1.01802150457004,98.0058004076727,115,65,1.1,0.9
SOUTH PERRY,140,1,10.758533,0,0,0,65,1.0180650114079,98.0220299759449,115,65,1.1,0.9
UNKNOWN124745,141,1,5.050016,0,0,0,65,1.01347021849437,96.3759073482828,115,65,1.1,0.9
UNKNOWN124746,142,1,7.575025,0,0,0,65,1.01269714247795,96.0614454001727,115,65,1.1,0.9
UNKNOWN124747,143,1,5.050016,0,0,0,65,1.02384014140287,95.9692139243104,115,65,1.1,0.9
UNKNOWN124750,144,1,5.050016,0,0,0,65,1.02123044299007,95.6180132537727,115,65,1.1,0.9
ERIE ST,145,1,7.575025,0,0,0,65,1.01984892126901,95.4569136616308,115,65,1.1,0.9
DEPEW,146,1,2.525008,0,0,0,65,1.01945529683971,95.3450601544185,115,65,1.1,0.9
UNKNOWN124823,147,1,4.178645,0,0,0,67,1.01846793606715,90.7519650912297,115,67,1.1,0.9
UNKNOWN124826,148,1,4.178645,0,0,0,67,1.0194917465527,89.381076549055,115,67,1.1,0.9
UNKNOWN124827,149,1,12.535934,0,0,0,67,1.01955425107405,89.4006453863027,115,67,1.1,0.9
UNKNOWN124828,150,1,8.35729,0,0,0,67,1.01998822813891,89.3502033984181,115,67,1.1,0.9
UNKNOWN124829,151,1,4.178645,0,0,0,67,1.01999673044675,89.3502147701083,115,67,1.1,0.9
UNKNOWN124830,152,1,8.35729,0,0,0,67,1.01963053714705,93.967255874636,115,67,1.1,0.9
LABRADOR,153,1,4.178645,0,0,0,67,1.01557890031703,88.0815932822782,115,67,1.1,0.9
CORTLAND,154,1,12.535934,0,0,0,67,1.01550741166238,88.9696485413232,115,67,1.1,0.9
UNKNOWN124834,155,1,4.178645,0,0,0,67,1.01525228489081,88.9056667118039,115,67,1.1,0.9
STARR RD,156,1,8.35729,0,0,0,67,1.01477915632995,88.7530242615095,115,67,1.1,0.9
SUNY,157,1,4.178645,0,0,0,67,1.01476571624248,88.7452159584728,115,67,1.1,0.9
UNKNOWN124837,158,1,4.178645,0,0,0,67,1.01491059194889,88.7757643412177,115,67,1.1,0.9
DAVIS RD,159,1,5.050016,0,0,0,65,1.02242383020464,95.6328567142571,115,65,1.1,0.9
UNKNOWN124940,160,1,2.525008,0,0,0,65,1.01894929783078,95.3379632047705,115,65,1.1,0.9
UNKNOWN124943,161,1,5.050016,0,0,0,65,1.01599934136586,94.3939888810723,115,65,1.1,0.9
UNKNOWN124944,162,1,10.100032,0,0,0,65,1.0159314298638,94.378341248033,115,65,1.1,0.9
UNKNOWN124945,163,1,12.62504,0,0,0,65,1.01580492377418,94.3505387968704,115,65,1.1,0.9
UNKNOWN124946,164,1,2.525008,0,0,0,65,1.0158004994609,94.3494725607754,115,65,1.1,0.9
UNKNOWN124947,165,1,2.525008,0,0,0,65,1.01616713144434,95.1188530403625,115,65,1.1,0.9
UNKNOWN124948,166,1,2.525008,0,0,0,65,1.01640344068895,95.177213747739,115,65,1.1,0.9
PINE GROVE,167,1,8.35729,0,0,0,67,1.01225651785762,93.11273949368,115,67,1.1,0.9
BRIDGEPORT,168,1,2.077003,0,0,0,69,1.01307075533299,90.3600537208526,115,69,1.1,0.9
UNKNOWN124958,169,1,8.35729,0,0,0,67,1.01293613974858,92.646139290163,115,67,1.1,0.9
UNKNOWN124959,170,1,8.35729,0,0,0,67,1.01366914863764,92.5428574374011,115,67,1.1,0.9
TEAL,171,1,33.429158,0,0,0,67,1.01334695241593,92.5242701371544,115,67,1.1,0.9
HOPKINS,172,1,8.35729,0,0,0,67,1.01144601481208,92.9003894248333,115,67,1.1,0.9
WOODARD,173,1,12.535933,0,0,0,67,1.01012625204744,93.5238948013159,115,67,1.1,0.9
BELMONT,174,1,8.35729,0,0,0,67,1.00945331347723,93.2283729330476,115,67,1.1,0.9
UNKNOWN124964,175,1,8.35729,0,0,0,67,1.00844340697448,92.9703556773261,115,67,1.1,0.9
UNKNOWN124965,176,1,8.35729,0,0,0,67,1.00725157013138,92.6189527365282,115,67,1.1,0.9
UNKNOWN124966,177,1,4.178645,0,0,0,67,1.00747493190587,92.6782687438488,115,67,1.1,0.9
UNKNOWN124968,178,1,12.535934,0,0,0,67,1.00729526062929,92.630732859842,115,67,1.1,0.9
UNKNOWN124969,179,1,8.35729,0,0,0,67,1.00737714860926,92.6480268595472,115,67,1.1,0.9
MILTON,180,1,8.35729,0,0,0,67,1.00821519789709,92.8275808138355,115,67,1.1,0.9
UNKNOWN124972,181,1,8.35729,0,0,0,67,1.00726077908733,92.6222910784071,115,67,1.1,0.9
ANHEUSER BUSCH,182,1,8.35729,0,0,0,67,1.00359789392694,94.7862402447975,115,67,1.1,0.9
LYSANDER,183,1,8.35729,0,0,0,67,1.00363385302259,94.7949976647081,115,67,1.1,0.9
G E,184,1,8.35729,0,0,0,67,1.01040943881086,93.6432135076243,115,67,1.1,0.9
SORRELL HILL,185,1,8.35729,0,0,0,67,1.00478878119656,94.6109620136177,115,67,1.1,0.9
UNKNOWN125018,186,1,6.231008,0,0,0,69,1.02515369260748,80.8774808724146,115,69,1.1,0.9
UNKNOWN125019,187,1,4.154006,0,0,0,69,1.0221002160465,81.7657658362136,115,69,1.1,0.9
UNKNOWN125020,188,1,4.154006,0,0,0,69,0.985068248896271,74.3575170502237,115,69,1.1,0.9
UNKNOWN125021,189,1,2.077003,0,0,0,69,0.99322818472042,77.3349031020985,115,69,1.1,0.9
UNKNOWN125027,190,1,29.618794,0,0,0,68,1.00114469007745,97.596211483627,115,68,1.1,0.9
UNKNOWN125029,191,1,29.618794,0,0,0,68,0.989865541589259,91.6123934324545,115,68,1.1,0.9
UNKNOWN125031,192,1,44.428191,0,0,0,68,0.996099793802314,94.6783187112717,115,68,1.1,0.9
UNKNOWN125033,193,1,59.237587,0,0,0,68,0.991599851986874,94.6306229165749,115,68,1.1,0.9
UNKNOWN125053,194,1,20.530668,0,0,0,70,1.01523508217966,80.7269491143959,115,70,1.1,0.9
UNKNOWN125054,195,1,6.843556,0,0,0,70,1.01518744564621,80.715039090988,115,70,1.1,0.9
RISER125055,196,1,6.843556,0,0,0,70,1.01441106031962,80.6259632213608,115,70,1.1,0.9
UNKNOWN125114,197,1,14.398499,0,0,0,66,1.00963798608814,92.6891417165557,115,66,1.1,0.9
HOGAN RD,198,1,14.398499,0,0,0,66,0.998499147411342,90.5556279049731,115,66,1.1,0.9
UNKNOWN125117,199,1,14.398499,0,0,0,66,1.00272261237473,90.7920011846611,115,66,1.1,0.9
STATION #52,200,1,21.597749,0,0,0,66,1.0017236289296,91.5124586150303,115,66,1.1,0.9
UNKNOWN125119,201,1,14.398499,0,0,0,66,1.00259713564679,91.2479148371728,115,66,1.1,0.9
UNKNOWN125122,202,1,8.35729,0,0,0,67,1.01914425479724,86.6744041004088,115,67,1.1,0.9
UNKNOWN125123,203,1,4.154006,0,0,0,69,1.01966659555955,85.5451259938819,115,69,1.1,0.9
UNKNOWN125124,204,1,6.231008,0,0,0,69,1.01926902418658,84.9977776059417,115,69,1.1,0.9
UNKNOWN125125,205,1,8.308011,0,0,0,69,1.01826039392863,83.3487286259513,115,69,1.1,0.9
UNKNOWN125129,206,1,4.154006,0,0,0,69,1.01942090662829,82.7659853403658,115,69,1.1,0.9
HYATT RD,207,1,4.178645,0,0,0,67,1.00857588125814,91.9131589103379,115,67,1.1,0.9
GENEVA BORDER CITY,208,1,12.535934,0,0,0,67,1.00898210209968,91.7768235677458,115,67,1.1,0.9
GUARDIAN GLASS,209,1,14.398499,0,0,0,66,1.00941889377107,91.8068358217745,115,66,1.1,0.9
UNKNOWN125137,210,1,14.398499,0,0,0,66,1.00449189537547,91.97986693652,115,66,1.1,0.9
FARMINGTON,211,1,14.398499,0,0,0,66,0.99966908393668,90.5464420845705,115,66,1.1,0.9
UNKNOWN125140,212,1,14.398499,0,0,0,66,1.01315225242204,92.3238522916421,115,66,1.1,0.9
STATION #199,213,1,14.398499,0,0,0,66,1.00876403861296,92.7637354139414,115,66,1.1,0.9
SLEIGHT RD,214,1,21.597749,0,0,0,66,1.00887106116236,93.6363959291039,115,66,1.1,0.9
UNKNOWN125151,215,1,14.398499,0,0,0,66,1.01005315822038,94.4360529910622,115,66,1.1,0.9
QUAKER #121,216,1,57.593995,0,0,0,66,1.01080334982718,94.7514720038664,115,66,1.1,0.9
UNKNOWN125153,217,1,14.398499,0,0,0,66,1.01784607639859,97.9584033074685,115,66,1.1,0.9
STATION #230,218,1,14.398499,0,0,0,66,1.01562456512626,96.4951821829383,115,66,1.1,0.9
STATION #204,219,1,14.398499,0,0,0,66,1.01736157274534,97.8051308823668,115,66,1.1,0.9
SLOCUM RD,220,1,43.195498,0,0,0,66,1.01738730034993,97.8773300170594,115,66,1.1,0.9
FAIRPORT,221,1,14.398499,0,0,0,66,0.99864171588668,90.6263794320531,115,66,1.1,0.9
UNKNOWN125159,222,1,7.199249,0,0,0,66,1.01062753193453,94.7078516107503,115,66,1.1,0.9
UNKNOWN125161,223,1,5.050016,0,0,0,65,1.0185969773036,97.6228271970421,115,65,1.1,0.9
UNKNOWN125162,224,1,2.525008,0,0,0,65,1.01260446189077,96.0295454167808,115,65,1.1,0.9
AKZO SALT,225,1,2.270691,0,0,0,65,1.00708077488684,93.3953527356147,69,65,1.1,0.9
YORK CENTER,226,1,2.270691,0,0,0,65,1.00466791089214,92.8910536263409,69,65,1.1,0.9
N LAKEVILLE,227,1,2.525008,0,0,0,65,1.00932988055725,88.5917909878764,115,65,1.1,0.9
GOLAH,228,1,30.674502,0,0,0,66,1.00032661958966,89.5577980528492,115,66,1.1,0.9
MUMFORD,229,1,14.398499,0,0,0,66,0.99683765952239,89.120586017439,115,66,1.1,0.9
N LE ROY,230,1,5.050016,0,0,0,65,0.994690315634622,89.097423133535,115,65,1.1,0.9
UNKNOWN125171,231,1,5.050016,0,0,0,65,0.994701490101018,89.0966188494962,115,65,1.1,0.9
LAPP,232,1,5.050016,0,0,0,65,0.994236938636454,89.1986438802229,115,65,1.1,0.9
E BATAVIA,233,1,5.050016,0,0,0,65,0.993359503685622,89.6261877863517,115,65,1.1,0.9
UNKNOWN125174,234,1,5.050016,0,0,0,65,0.993366430959264,89.6608047504259,115,65,1.1,0.9
UNKNOWN125175,235,1,2.525008,0,0,0,65,0.99336372374955,89.6602624061233,115,65,1.1,0.9
BATAVIA,236,1,12.62504,0,0,0,65,0.994662907998693,90.0949864528684,115,65,1.1,0.9
UNKNOWN125178,237,1,2.525008,0,0,0,65,0.997704674819047,91.3080222315891,115,65,1.1,0.9
OAKFIELD,238,1,2.525008,0,0,0,65,0.997707164801684,91.3085896414821,115,65,1.1,0.9
EAST GOLAH,239,1,7.199249,0,0,0,66,1.00019345539218,89.3794331323255,115,66,1.1,0.9
W HAMLIN,240,2,14.398499,0,0,43.159929,66,1.00999992081999,86.6455213653013,115,66,1.1,0.9
UNKNOWN125183,241,1,14.398499,0,0,0,66,1.00196535246359,86.9282278756549,115,66,1.1,0.9
UNKNOWN125185,242,1,35.996249,0,0,0,66,1.00293813631098,90.1612337522189,115,66,1.1,0.9
UNKNOWN125186,243,1,7.199249,0,0,0,66,1.00927649783706,92.5875465976017,115,66,1.1,0.9
UNKNOWN125187,244,1,7.199249,0,0,0,66,1.00251280307424,90.0447992826446,115,66,1.1,0.9
UNKNOWN125188,245,1,7.199249,0,0,0,66,1.00600968078932,88.5980426103893,115,66,1.1,0.9
UNKNOWN125189,246,1,14.398499,0,0,0,66,1.00705356254217,88.4967207349344,115,66,1.1,0.9
UNKNOWN125190,247,1,7.199249,0,0,0,66,1.00928956201651,88.5003040917289,115,66,1.1,0.9
UNKNOWN125194,248,1,7.199249,0,0,0,66,1.00260140407684,90.0722595471083,115,66,1.1,0.9
BROCKPORT,249,1,14.398499,0,0,0,66,1.0019765502127,86.9231050848563,115,66,1.1,0.9
UNKNOWN125198,250,1,28.796998,0,0,0,66,1.00656827540061,89.546165497559,115,66,1.1,0.9
UNKNOWN125200,251,1,2.525008,0,0,0,65,1.00427491867374,92.0148844934369,115,65,1.1,0.9
SHELBY,252,1,5.050016,0,0,0,65,1.00428403752888,92.0170415411291,115,65,1.1,0.9
TELEGRAPH RD,253,1,5.050016,0,0,0,65,1.00685876111347,93.4263524189495,115,65,1.1,0.9
LAPEER,254,1,0,0,0,0,67,1.02478880719135,95.3462754711047,345,67,1.1,0.9
UNKNOWN125292,255,1,5.050016,0,0,0,65,1.01964602187972,96.0994412447356,115,65,1.1,0.9
UNKNOWN125293,256,1,12.625042,0,0,0,65,1.01797133349364,96.2021163289305,115,65,1.1,0.9
UNKNOWN125294,257,1,5.050016,0,0,0,65,1.0179527555363,96.1907874039968,115,65,1.1,0.9
UNKNOWN125295,258,1,5.050016,0,0,0,65,1.01762140269238,95.9220071722155,115,65,1.1,0.9
UNKNOWN125296,259,1,2.525008,0,0,0,65,1.01742008863455,95.8745675253026,115,65,1.1,0.9
UNKNOWN125297,260,1,2.525008,0,0,0,65,1.01740932887619,95.8721752755053,115,65,1.1,0.9
UNKNOWN125298,261,1,2.525008,0,0,0,65,1.01740337053369,95.8707183630659,115,65,1.1,0.9
UNKNOWN125299,262,1,5.050016,0,0,0,65,1.01683229700531,95.9792431507965,115,65,1.1,0.9
UNKNOWN125300,263,1,5.050016,0,0,0,65,1.0173473934342,96.1216986817699,115,65,1.1,0.9
UNKNOWN125301,264,1,17.675056,0,0,0,65,1.01808514431499,96.3219523214994,115,65,1.1,0.9
SWANN RD,265,1,5.050016,0,0,0,65,1.01899385872271,99.5436662022212,115,65,1.1,0.9
UNKNOWN125330,266,1,11.053722,0,0,0,65,1.0198293423913,100.008827940366,115,65,1.1,0.9
UNKNOWN125332,267,1,5.050016,0,0,0,65,1.01959607589671,99.8281675293659,115,65,1.1,0.9
UNKNOWN125333,268,1,5.050016,0,0,0,65,1.01959425300571,99.827724536718,115,65,1.1,0.9
LOCKPORT,269,1,40.40013,0,0,0,65,1.01581704838241,96.4465980092094,115,65,1.1,0.9
HINMAN,270,1,12.62504,0,0,0,65,1.01602062475754,96.4863877781241,115,65,1.1,0.9
UNKNOWN125339,271,1,10.100032,0,0,0,65,1.01646135903222,96.638824735246,115,65,1.1,0.9
UNKNOWN125340,272,1,5.050016,0,0,0,65,1.0147291576884,95.8054423651854,115,65,1.1,0.9
UNKNOWN125341,273,1,2.525008,0,0,0,65,1.01996545822197,97.0613803118472,115,65,1.1,0.9
UNKNOWN125342,274,1,5.050016,0,0,0,65,1.01636359722788,96.6151220879612,115,65,1.1,0.9
UNKNOWN125343,275,1,2.525008,0,0,0,65,1.01635723629955,96.6136081835918,115,65,1.1,0.9
SANBORN,276,1,2.525008,0,0,0,65,1.01720607184824,98.0085297952021,115,65,1.1,0.9
SANBORN,277,1,12.62504,0,0,0,65,1.01721629573259,98.0124312005746,115,65,1.1,0.9
UNKNOWN125346,278,1,7.575025,0,0,0,65,1.01798200234479,96.2959534659413,115,65,1.1,0.9
UNKNOWN125347,279,1,7.575025,0,0,0,65,1.01796719662736,96.2924727320547,115,65,1.1,0.9
UNKNOWN125348,280,1,5.050016,0,0,0,65,1.01845279181342,96.4177917644095,115,65,1.1,0.9
UNKNOWN125349,281,1,5.050016,0,0,0,65,1.01913012020933,96.4155168586304,115,65,1.1,0.9
UNKNOWN125350,282,1,5.050016,0,0,0,65,1.01928411781906,96.4133592916136,115,65,1.1,0.9
UNKNOWN125351,283,1,5.050016,0,0,0,65,1.01965720496419,96.4270589602743,115,65,1.1,0.9
UNKNOWN125352,284,2,2.525008,0,0,0,65,1.02,96.4495868640596,115,65,1.1,0.9
UNKNOWN125353,285,1,2.525008,0,0,0,65,1.01959709038703,96.4227315323382,115,65,1.1,0.9
UNKNOWN125354,286,1,10.100032,0,0,0,65,1.01796097763875,96.2917646851924,115,65,1.1,0.9
UNKNOWN125355,287,1,5.050016,0,0,0,65,1.01797461681517,96.2954645745707,115,65,1.1,0.9
UNKNOWN125356,288,1,7.575025,0,0,0,65,1.01385898615188,92.9249454038726,115,65,1.1,0.9
UNKNOWN125357,289,1,5.050016,0,0,0,65,1.01461693804285,93.9188445142718,115,65,1.1,0.9
CLOVERBANK,290,1,10.100032,0,0,0,65,1.01351174536939,93.2951011507257,115,65,1.1,0.9
SHALETON,291,1,10.100032,0,0,0,65,1.01338027300494,93.1591144848648,115,65,1.1,0.9
UNKNOWN125360,292,1,5.050016,0,0,0,65,1.01335700450496,93.0514121893895,115,65,1.1,0.9
UNKNOWN125361,293,1,5.050016,0,0,0,65,1.01367915732706,93.6028450712459,115,65,1.1,0.9
NEW GARDENVILLE,294,1,0,0,0,0,65,1.01915326291925,99.8618970487879,230,65,1.1,0.9
UNKNOWN125363,295,1,2.525008,0,0,0,65,1.02579169374256,96.0125399677125,115,65,1.1,0.9
UNKNOWN125366,296,1,5.050016,0,0,0,65,1.01666677358771,95.2418837063886,115,65,1.1,0.9
UNKNOWN125367,297,1,5.050016,0,0,0,65,1.01349370266197,93.5554425501092,115,65,1.1,0.9
SENECA TERMINAL,298,1,0,0,0,0,65,1.01855259077219,100.129108522327,230,65,1.1,0.9
UNKNOWN125369,299,1,2.525008,0,0,0,65,1.01981795789296,96.6422828640474,115,65,1.1,0.9
UNKNOWN125370,300,1,5.050016,0,0,0,65,1.01752731167327,95.7686659118104,115,65,1.1,0.9
STATION 153,301,1,2.525008,0,0,0,65,1.01751760998602,95.7663712051186,115,65,1.1,0.9
UNKNOWN125372,302,1,7.575025,0,0,0,65,1.01610404073917,95.560074060934,115,65,1.1,0.9
UNKNOWN125373,303,1,5.050016,0,0,0,65,1.01605161192277,95.5514078884561,115,65,1.1,0.9
UNKNOWN125374,304,1,2.525008,0,0,0,65,1.01610181578326,95.5595414381515,115,65,1.1,0.9
UNKNOWN125375,305,1,5.050016,0,0,0,65,1.0157074395291,95.4988233371724,115,65,1.1,0.9
UNKNOWN125376,306,1,5.050016,0,0,0,65,1.01523457133444,95.4330432636881,115,65,1.1,0.9
STATION 54,307,1,5.050017,0,0,0,65,1.0149307129077,95.4087075531766,115,65,1.1,0.9
UNKNOWN125378,308,1,2.525008,0,0,0,65,1.01739984333859,95.7196534140534,115,65,1.1,0.9
STATION 140,309,1,10.100032,0,0,0,65,1.01471617140749,95.4348194470976,115,65,1.1,0.9
UNKNOWN125404,310,1,5.050016,0,0,0,65,1.01800752555491,96.2727033793087,115,65,1.1,0.9
NORTH BROADWAY,311,1,5.050016,0,0,0,65,1.01868227653118,95.4884682993813,115,65,1.1,0.9
UNKNOWN125407,312,1,5.050016,0,0,0,65,1.01744384618551,95.7293517138458,115,65,1.1,0.9
CAMPUS,313,1,0,0,0,0,65,1.01849093662117,100.742038401265,230,65,1.1,0.9
UNKNOWN125409,314,1,5.050016,0,0,0,65,1.01779167609743,95.769061743089,115,65,1.1,0.9
SAWYER AVE,315,1,0,0,0,0,65,1.01798449088956,101.89492898914,230,65,1.1,0.9
UNKNOWN125412,316,1,5.050016,0,0,0,65,1.01540920663882,95.6323222281016,115,65,1.1,0.9
DUPONT,317,2,2.525008,0,0,0,65,1.02,96.6696044020196,115,65,1.1,0.9
CHEVROLET,318,1,2.525008,0,0,0,65,1.01934776329228,96.5218666345538,115,65,1.1,0.9
UNKNOWN125415,319,1,5.050016,0,0,0,65,1.01887781317614,96.4180993815597,115,65,1.1,0.9
UNKNOWN125417,320,1,5.050016,0,0,0,65,1.01771134410984,95.7870594243794,115,65,1.1,0.9
CALSPAN,321,1,2.525008,0,0,0,65,1.01849065470605,95.497821217101,115,65,1.1,0.9
BALL,322,1,5.050016,0,0,0,65,1.01758945379321,95.7338035314656,115,65,1.1,0.9
UNKNOWN125422,323,1,5.050016,0,0,0,65,1.01764959370798,96.165178657592,115,65,1.1,0.9
UNKNOWN125426,324,1,2.525008,0,0,0,65,1.01535915143471,95.6198257213226,115,65,1.1,0.9
UNKNOWN125427,325,1,5.050016,0,0,0,65,1.01524031697641,95.589263446387,115,65,1.1,0.9
BUFFALO SEWER AUTHORTY,326,1,5.050016,0,0,0,65,1.0151805728669,95.5721798136708,115,65,1.1,0.9
AYER RD,327,1,5.050016,0,0,0,65,1.01416225634938,95.3236709283091,115,65,1.1,0.9
TULLY CENTER,328,1,8.35729,0,0,0,67,1.01530500442933,90.381352261767,115,67,1.1,0.9
TILDEN,329,1,16.71458,0,0,0,67,1.01608896969967,92.0648426911652,115,67,1.1,0.9
UNKNOWN125433,330,1,0,0,0,0,67,1.01886614534773,101.433640490185,345,67,1.1,0.9
UNKNOWN125434,331,1,0,0,0,0,67,1.01884320164236,101.459764204325,345,67,1.1,0.9
ELBRIDGE,332,1,0,0,0,0,67,1.01691771948888,102.391416246249,345,67,1.1,0.9
HARRIS,333,1,8.35729,0,0,0,67,1.00970990785944,92.4537183191057,115,67,1.1,0.9
UNKNOWN125437,334,1,41.786444,0,0,0,67,1.00751576162258,92.6882664826852,115,67,1.1,0.9
SOUTHWOOD,335,1,8.35729,0,0,0,67,1.01559939201584,92.4283676175742,115,67,1.1,0.9
PEBBLE HILL,336,1,12.535934,0,0,0,67,1.01545924508599,92.8301271311671,115,67,1.1,0.9
DEWITT,337,1,0,0,0,0,67,1.01828659141236,102.218451051018,345,67,1.1,0.9
ROCK CUT,338,1,8.35729,0,0,0,67,1.01787596945078,92.0685610172344,115,67,1.1,0.9
UNKNOWN125442,339,2,4.178645,0,0,0,67,1.02,92.1932917645194,115,67,1.1,0.9
UNKNOWN125443,340,1,4.178645,0,0,0,67,1.01574119531518,93.167844680783,115,67,1.1,0.9
BUTTERMILK,341,1,8.35729,0,0,0,67,1.01599763125076,93.2193084781425,115,67,1.1,0.9
UNKNOWN125445,342,1,8.35729,0,0,0,67,1.01495370100057,92.9092289572246,115,67,1.1,0.9
UNKNOWN125446,343,1,12.535934,0,0,0,67,1.01434166852606,92.751885938665,115,67,1.1,0.9
UNKNOWN125447,344,1,12.535934,0,0,0,67,1.01488298783747,92.8840950620474,115,67,1.1,0.9
UNKNOWN125448,345,1,8.35729,0,0,0,67,1.01963897703095,93.0125699106619,115,67,1.1,0.9
UNKNOWN125449,346,1,8.35729,0,0,0,67,1.01928112206995,92.9744748069179,115,67,1.1,0.9
UNKNOWN125450,347,1,8.35729,0,0,0,67,1.01427339979064,92.8989059861082,115,67,1.1,0.9
UNKNOWN125451,348,1,8.35729,0,0,0,67,1.01320227258164,92.7421481929574,115,67,1.1,0.9
UNKNOWN125452,349,1,4.178645,0,0,0,67,1.01320272710572,92.7264276021579,115,67,1.1,0.9
UNKNOWN125469,350,1,8.35729,0,0,0,67,1.01242484430153,93.8246442114315,115,67,1.1,0.9
EUCLID/OCWA,351,1,8.35729,0,0,0,67,1.01153582894946,93.8856036199808,115,67,1.1,0.9
UNKNOWN125471,352,1,4.178645,0,0,0,67,1.01151050610369,93.8820069743786,115,67,1.1,0.9
S OSWEGO,353,1,28.205851,0,0,0,67,1.01753819429019,102.03733624351,115,67,1.1,0.9
UNKNOWN125473,354,1,8.35729,0,0,0,67,1.00876163912071,98.3550776912435,115,67,1.1,0.9
BRISTOL HILL,355,1,8.35729,0,0,0,67,1.0120269182106,98.5575481091571,115,67,1.1,0.9
UNKNOWN125475,356,1,3.171561,0,0,0,67,1.02185983839036,104.515035642797,115,67,1.1,0.9
UNKNOWN125476,357,2,0,0,0,0,67,1.02,109.536414407422,345,67,1.1,0.9
UNKNOWN125477,358,2,0,0,0,0,67,1.02,109.816144224351,345,67,1.1,0.9
PALOMA,359,1,12.535934,0,0,0,67,1.01781001369143,102.16320560363,115,67,1.1,0.9
UNKNOWN125480,360,1,8.35729,0,0,0,67,1.01871175840209,103.243848356565,115,67,1.1,0.9
UNKNOWN125563,361,1,4.178645,0,0,0,67,1.01567640771805,99.6918097699285,115,67,1.1,0.9
UNKNOWN125564,362,1,4.178645,0,0,0,67,1.01564147563354,99.6833672001962,115,67,1.1,0.9
UNKNOWN125565,363,1,8.35729,0,0,0,67,1.01186079593565,98.3529737196148,115,67,1.1,0.9
UNKNOWN125566,364,1,4.178645,0,0,0,67,1.01126020593859,97.7593652072541,115,67,1.1,0.9
GILBERT MILLS,365,1,8.35729,0,0,0,67,1.01195668281185,96.4207756166722,115,67,1.1,0.9
DELPHI,366,1,4.154006,0,0,0,69,1.01759066084958,87.8019139213098,115,69,1.1,0.9
UNKNOWN125571,367,1,2.077003,0,0,0,69,1.01942208427526,87.6851730076925,115,69,1.1,0.9
FENNER,368,2,4.154006,0,0,0,69,1.02,87.7182216518048,115,69,1.1,0.9
WHITMAN,369,1,2.077003,0,0,0,69,1.01927978021382,87.661349378215,115,69,1.1,0.9
UNKNOWN125574,370,1,2.077003,0,0,0,69,1.01951463958686,98.3406129180362,115,69,1.1,0.9
UNKNOWN125575,371,1,4.154006,0,0,0,69,1.01958034163478,98.3446881518182,115,69,1.1,0.9
UNKNOWN125576,372,1,8.308011,0,0,0,69,1.01975498443294,98.3952893070859,115,69,1.1,0.9
UNKNOWN125577,373,1,2.077003,0,0,0,69,1.01987393648224,98.3005625826822,115,69,1.1,0.9
UNKNOWN125578,374,1,12.462016,0,0,0,69,1.01953499287051,98.4182771924554,115,69,1.1,0.9
UNKNOWN125579,375,1,4.154006,0,0,0,69,1.01968085746041,98.543704772565,115,69,1.1,0.9
UNKNOWN125580,376,1,2.077003,0,0,0,69,1.01954048446722,98.4874747820922,115,69,1.1,0.9
UNKNOWN125581,377,1,2.077003,0,0,0,69,1.01984836159279,98.5677903548566,115,69,1.1,0.9
UNKNOWN125582,378,2,6.231008,0,0,0,69,1.02,98.4284479327861,115,69,1.1,0.9
UNKNOWN125583,379,1,6.231008,0,0,0,69,1.0190329536299,98.3209779847499,115,69,1.1,0.9
ONEIDA,380,1,14.53902,0,0,0,69,1.01761902538705,87.7023420994541,115,69,1.1,0.9
UNKNOWN125598,381,2,2.077003,0,0,0,69,1.02,88.208512563891,115,69,1.1,0.9
WALESVILLE,382,1,4.154006,0,0,0,69,1.01633129922471,84.9683503350158,115,69,1.1,0.9
VAHNUNDASIS,383,1,8.308011,0,0,0,69,1.01617765834491,85.1643715621218,115,69,1.1,0.9
CAVANAUGH,384,1,2.077003,0,0,0,69,1.01673401852258,84.5197156904491,115,69,1.1,0.9
TERMINAL,385,1,4.154006,0,0,0,69,1.01690466094057,84.2131268572404,115,69,1.1,0.9
DEERFIELD,386,1,2.077003,0,0,0,69,1.01689993798899,84.4213287636905,115,69,1.1,0.9
UNKNOWN125605,387,1,4.154006,0,0,0,69,1.01996866039598,84.9509348979551,115,69,1.1,0.9
WATKINS RD,388,1,6.231008,0,0,0,69,1.01710386597396,83.10349002137,115,69,1.1,0.9
ILION,389,1,2.077003,0,0,0,69,1.01667787542443,82.9974390288637,115,69,1.1,0.9
SCHUYLER,390,1,4.154006,0,0,0,69,1.01698659025795,84.2255101874348,115,69,1.1,0.9
TURIN,391,1,4.154006,0,0,0,69,1.01251937380115,86.5372233660611,115,69,1.1,0.9
BOONVILLE VILLAGE,392,1,2.077003,0,0,0,69,1.01333074597323,88.2120330918775,115,69,1.1,0.9
TURNING STONE,393,1,4.154006,0,0,0,69,1.01661281411317,87.3499820172338,115,69,1.1,0.9
UNKNOWN125627,394,1,4.154005,0,0,0,69,1.01669886384162,95.8951385074798,115,69,1.1,0.9
UNKNOWN125628,395,2,0,0,0,0,69,1.02,104.516173030244,230,69,1.1,0.9
UNKNOWN125629,396,1,2.077003,0,0,0,69,1.0142832252688,89.778792474922,115,69,1.1,0.9
UNKNOWN125630,397,1,2.077003,0,0,0,69,1.01428342964064,89.7788156214983,115,69,1.1,0.9
UNKNOWN125631,398,1,2.077003,0,0,0,69,1.01387080294678,89.8197624823097,115,69,1.1,0.9
UNKNOWN125633,399,2,4.154006,0,0,0,69,1.02,81.9840690338284,115,69,1.1,0.9
SALISBURY,400,1,4.942221,0,0,0,69,1.01817027320338,81.0896296045487,115,69,1.1,0.9
UNKNOWN125635,401,1,2.077003,0,0,0,69,1.01715589672989,101.714786874921,115,69,1.1,0.9
UNKNOWN125638,402,1,4.154006,0,0,0,69,1.01990123880312,100.081627184064,115,69,1.1,0.9
UNKNOWN125639,403,1,4.154006,0,0,0,69,1.01850523458934,101.623415277643,115,69,1.1,0.9
UNKNOWN125640,404,1,2.077003,0,0,0,69,1.01996058147133,103.12558504571,115,69,1.1,0.9
UNKNOWN125641,405,2,2.077003,0,0,0,69,1.02,103.15194155435,115,69,1.1,0.9
UNKNOWN125642,406,2,2.077003,0,0,0,69,1.02,102.921408882398,115,69,1.1,0.9
UNKNOWN125643,407,2,2.077003,0,0,0,69,1.02,103.02607108854,115,69,1.1,0.9
UNKNOWN125644,408,2,2.077003,0,0,0,69,1.02,102.951835475059,115,69,1.1,0.9
UNKNOWN125645,409,2,2.077003,0,0,0,69,1.02,102.763239721945,115,69,1.1,0.9
UNKNOWN125646,410,1,2.077003,0,0,0,69,1.01678101156255,102.31705788553,115,69,1.1,0.9
UNKNOWN125647,411,1,4.154006,0,0,0,69,1.01599142103661,102.68758345529,115,69,1.1,0.9
UNKNOWN125649,412,1,8.308011,0,0,0,69,1.00711607971441,99.7444939443656,115,69,1.1,0.9
UNKNOWN125650,413,1,6.231008,0,0,0,69,1.00743775158535,100.467508122729,115,69,1.1,0.9
UNKNOWN125651,414,1,4.154006,0,0,0,69,1.01079854612233,103.296446190839,115,69,1.1,0.9
ALCOA MASSENA OPERATIONS - WEST PLANT,415,1,20.770028,0,0,0,69,1.01717638289047,106.875247811016,115,69,1.1,0.9
UNKNOWN125653,416,1,2.077003,0,0,0,69,1.01712590696557,106.859864505054,115,69,1.1,0.9
UNKNOWN125654,417,1,4.154005,0,0,0,69,1.01740075695013,107.041030922064,115,69,1.1,0.9
UNKNOWN125655,418,1,8.308011,0,0,0,69,1.01675789626635,106.40020756621,115,69,1.1,0.9
UNKNOWN125657,419,1,4.154006,0,0,0,69,1.00772813753266,99.3349160636543,115,69,1.1,0.9
UNKNOWN125658,420,1,4.154006,0,0,0,69,1.00781079017742,99.3115137317072,115,69,1.1,0.9
UNKNOWN125659,421,1,4.154006,0,0,0,69,1.00514074979027,97.1898754078446,115,69,1.1,0.9
UNKNOWN125660,422,1,4.154006,0,0,0,69,1.00499873994878,97.1541997505208,115,69,1.1,0.9
UNKNOWN125661,423,1,8.308011,0,0,0,69,1.00573741803442,97.357644940434,115,69,1.1,0.9
UNKNOWN125662,424,1,4.154006,0,0,0,69,1.00751296018604,97.2883266636378,115,69,1.1,0.9
UNKNOWN125663,425,1,2.077003,0,0,0,69,1.00720179649648,97.2712583261878,115,69,1.1,0.9
UNKNOWN125664,426,1,4.154006,0,0,0,69,1.00836246995789,98.8503904952679,115,69,1.1,0.9
UNKNOWN125665,427,1,4.154006,0,0,0,69,1.01163444666777,100.030057268572,115,69,1.1,0.9
UNKNOWN125667,428,1,4.154006,0,0,0,69,1.01961426969388,108.179596361535,115,69,1.1,0.9
UNKNOWN125668,429,1,6.231008,0,0,0,69,1.01957162483484,108.1659436865,115,69,1.1,0.9
UNKNOWN127513,430,1,4.154006,0,0,0,69,1.01923007965084,85.9202004528022,115,69,1.1,0.9
CHADWICKS,431,1,4.154006,0,0,0,69,1.01724761585863,85.3945175270904,115,69,1.1,0.9
UNKNOWN127515,432,1,4.154006,0,0,0,69,1.01596883884831,85.1086799314532,115,69,1.1,0.9
UNKNOWN127516,433,1,2.077003,0,0,0,69,1.01595440405299,85.1051301309372,115,69,1.1,0.9
ROME,434,1,8.308011,0,0,0,69,1.01338967662686,86.1887211555726,115,69,1.1,0.9
LEIGH,435,1,4.154006,0,0,0,69,1.00989534006406,85.3128445409053,115,69,1.1,0.9
UNKNOWN127520,436,1,2.077003,0,0,0,69,1.00985330008382,85.3027640399608,115,69,1.1,0.9
UNKNOWN127521,437,1,2.077003,0,0,0,69,1.00984572425196,85.3009170120592,115,69,1.1,0.9
DUNLOP,438,1,2.077003,0,0,0,69,1.01689520713655,84.216448221621,115,69,1.1,0.9
REVERE CO,439,1,2.077003,0,0,0,69,1.01315256065482,86.1946874431857,115,69,1.1,0.9
GRIFFISS AIR BASE,440,1,4.154006,0,0,0,69,1.01296752580603,86.2497557582495,115,69,1.1,0.9
UNKNOWN127526,441,1,4.154006,0,0,0,69,1.01372111240984,93.4238087013858,115,69,1.1,0.9
UNKNOWN127599,442,1,2.077003,0,0,0,69,1.0152201016712,102.974966600972,115,69,1.1,0.9
UNKNOWN127600,443,1,2.077003,0,0,0,69,1.01522272985407,102.975590518542,115,69,1.1,0.9
UNKNOWN127601,444,1,2.077003,0,0,0,69,1.01507732292108,104.031310858732,115,69,1.1,0.9
UNKNOWN127603,445,1,4.154006,0,0,0,69,1.01598259528039,105.624266474779,115,69,1.1,0.9
UNKNOWN127606,446,1,2.077003,0,0,0,69,1.01948170816713,108.141965558443,115,69,1.1,0.9
UNKNOWN127607,447,1,6.231008,0,0,0,69,1.01641324894964,102.43354790695,115,69,1.1,0.9
UNKNOWN127608,448,1,6.843556,0,0,0,70,1.00265476802507,98.0846020313855,115,70,1.1,0.9
UNKNOWN127611,449,1,44.428194,0,0,0,68,0.991458530095108,94.4877269143056,115,68,1.1,0.9
UNKNOWN127613,450,1,44.428194,0,0,0,68,0.984178147135495,91.4006684124855,115,68,1.1,0.9
UNKNOWN127615,451,1,3.421778,0,0,0,70,1.00177423278899,76.9132355680356,115,70,1.1,0.9
UNKNOWN127616,452,1,6.843556,0,0,0,70,1.00198089740637,77.0081677205396,115,70,1.1,0.9
UNKNOWN127617,453,1,6.843556,0,0,0,70,1.00288145627483,77.097480249736,115,70,1.1,0.9
UNKNOWN127618,454,1,3.421778,0,0,0,70,1.0050170836161,77.3861311830841,115,70,1.1,0.9
UNKNOWN127629,455,1,4.154006,0,0,0,69,1.01269089117953,78.9975711441053,115,69,1.1,0.9
UNKNOWN127630,456,1,2.077003,0,0,0,69,1.01148829472063,78.837052573266,115,69,1.1,0.9
UNKNOWN127631,457,1,4.154006,0,0,0,69,1.009906523169,78.735512320099,115,69,1.1,0.9
UNKNOWN127632,458,1,2.077003,0,0,0,69,1.00640702977287,78.8099044590204,115,69,1.1,0.9
UNKNOWN127634,459,1,4.154006,0,0,0,69,1.00645498213536,79.6584950482575,115,69,1.1,0.9
UNKNOWN127642,460,1,2.077003,0,0,0,69,1.00645706319388,78.6814152897111,115,69,1.1,0.9
UNKNOWN127643,461,1,4.154006,0,0,0,69,0.980356002350516,71.9938949657488,115,69,1.1,0.9
UNKNOWN127711,462,1,6.843556,0,0,0,70,1.01888399202813,82.0239519829685,115,70,1.1,0.9
UNKNOWN127712,463,2,3.421778,0,0,0,70,1.02,82.879724061531,115,70,1.1,0.9
UNKNOWN127714,464,1,6.843556,0,0,0,70,1.01831681330039,82.7802764685515,115,70,1.1,0.9
UNKNOWN127716,465,1,3.421778,0,0,0,70,1.01891114695191,82.3358170278836,115,70,1.1,0.9
UNKNOWN127717,466,1,3.421778,0,0,0,70,1.01961838508161,82.2465613782176,115,70,1.1,0.9
UNKNOWN127719,467,1,3.421778,0,0,0,70,1.01942701220124,82.1450646661585,115,70,1.1,0.9
UNKNOWN127721,468,1,3.421778,0,0,0,70,1.01510195926435,81.4689985721265,115,70,1.1,0.9
UNKNOWN127722,469,2,3.421778,0,0,0,70,1.02,82.0010371220477,115,70,1.1,0.9
UNKNOWN127723,470,1,3.421778,0,0,0,70,1.01984784643166,82.0101673303768,115,70,1.1,0.9
UNKNOWN127726,471,1,3.421778,0,0,0,70,1.02002757176557,81.5458169391098,115,70,1.1,0.9
UNKNOWN127728,472,1,6.843556,0,0,0,70,1.018524199139,81.8428377223775,115,70,1.1,0.9
UNKNOWN127732,473,1,3.421778,0,0,0,70,1.01262236783306,80.7781541352278,115,70,1.1,0.9
SPIER FALLS,474,2,34.217784,0,0,0,70,1.02,82.595828381843,115,70,1.1,0.9
UNKNOWN127736,475,1,6.843556,0,0,0,70,1.0095703362261,80.0704379534447,115,70,1.1,0.9
UNKNOWN127737,476,1,6.843556,0,0,0,70,1.00966919910888,80.0979990494997,115,70,1.1,0.9
UNKNOWN127784,477,1,6.843556,0,0,0,70,1.01682855330343,82.7889274418024,115,70,1.1,0.9
UNKNOWN127901,478,1,6.843556,0,0,0,70,1.00688963720286,77.3794587237098,115,70,1.1,0.9
UNKNOWN127902,479,1,1.538569,0,0,0,70,1.00999702430247,77.2582133551,69,70,1.1,0.9
UNKNOWN127903,480,1,6.843556,0,0,0,70,1.01496806243584,79.2805587024783,115,70,1.1,0.9
UNKNOWN127904,481,1,6.843556,0,0,0,70,1.01229249342845,78.6729536088888,115,70,1.1,0.9
UNKNOWN127905,482,1,6.843556,0,0,0,70,1.01195857089081,78.6069349195561,115,70,1.1,0.9
UNKNOWN127908,483,1,14.579484,0,0,0,70,1.00611436849956,78.9747016436734,115,70,1.1,0.9
UNKNOWN127909,484,1,6.843556,0,0,0,70,1.00533141895426,77.3451921485196,115,70,1.1,0.9
UNKNOWN127973,485,2,29.618794,0,0,40.164182,68,1.00999784740422,90.5950954909021,115,68,1.1,0.9
UNKNOWN127976,486,1,3.421778,0,0,0,70,1.0011948262831,97.6793212046842,115,70,1.1,0.9
UNKNOWN127977,487,1,6.843556,0,0,0,70,1.00050153235994,97.4825504280743,115,70,1.1,0.9
UNKNOWN127978,488,1,3.421778,0,0,0,70,1.00044162849373,97.4670648083875,115,70,1.1,0.9
UNKNOWN127980,489,2,10.265335,0,0,15.051585,70,1.00999792720081,82.8282409707158,115,70,1.1,0.9
UNKNOWN127981,490,1,6.843556,0,0,0,70,1.00566022979728,87.2917426950588,115,70,1.1,0.9
UNKNOWN127984,491,1,3.421778,0,0,0,70,1.00704786965424,84.0873940326845,115,70,1.1,0.9
UNKNOWN127985,492,1,3.421778,0,0,0,70,1.00839600748724,83.140508702105,115,70,1.1,0.9
UNKNOWN128050,493,1,2.077003,0,0,0,69,0.979037251086134,72.9915091043356,115,69,1.1,0.9
UNKNOWN128051,494,1,2.077003,0,0,0,69,0.987024492845792,75.94095779821,115,69,1.1,0.9
UNKNOWN128052,495,1,10.385014,0,0,0,69,1.00593562420533,80.7875695158104,115,69,1.1,0.9
UNKNOWN128149,496,1,4.154006,0,0,0,69,1.02906856094743,79.9313812249046,115,69,1.1,0.9
UNKNOWN128150,497,1,6.231008,0,0,0,69,1.02996740858213,79.7147683185044,115,69,1.1,0.9
UNKNOWN128153,498,1,4.154006,0,0,0,69,1.03073319066489,79.3868881834382,115,69,1.1,0.9
UNKNOWN128154,499,1,4.154006,0,0,0,69,1.02993501461893,79.6986226473486,115,69,1.1,0.9
UNKNOWN128156,500,1,1.867808,0,0,0,69,1.02157983692946,77.9670517419783,69,69,1.1,0.9
UNKNOWN128157,501,1,4.69567,0,0,0,69,1.02700107480324,80.1453701357978,115,69,1.1,0.9
UNKNOWN128261,502,1,3.421778,0,0,0,70,1.01212575691523,81.5726392742493,115,70,1.1,0.9
UNKNOWN128265,503,1,13.687113,0,0,0,70,1.01339930027875,82.1354395695354,115,70,1.1,0.9
UNKNOWN128267,504,1,3.421778,0,0,0,70,1.01388746848316,82.4115460170964,115,70,1.1,0.9
UNKNOWN128270,505,1,6.843556,0,0,0,70,1.01889887990411,84.1561308613549,115,70,1.1,0.9
UNKNOWN128272,506,1,6.843556,0,0,0,70,1.01084938900701,82.0771479708107,115,70,1.1,0.9
UNKNOWN128273,507,1,13.687113,0,0,0,70,1.01485603879032,82.6918136952209,115,70,1.1,0.9
UNKNOWN128274,508,2,6.843556,0,0,0,70,1.02,85.0163221914415,115,70,1.1,0.9
UNKNOWN128275,509,1,13.687113,0,0,0,70,1.0198104077254,84.9560151362413,115,70,1.1,0.9
UNKNOWN128277,510,1,9.920696,0,0,0,70,1.01849470075964,83.8284872872293,115,70,1.1,0.9
UNKNOWN128279,511,1,13.687113,0,0,0,70,1.0134245648533,82.132729706797,115,70,1.1,0.9
UNKNOWN128280,512,2,20.758304,0,0,29.846609,71,1.00999977459042,74.0763508620034,115,71,1.1,0.9
UNKNOWN128285,513,1,6.843556,0,0,0,70,1.01983625667962,82.8908056169283,115,70,1.1,0.9
UNKNOWN128941,514,1,8.257082,0,0,0,71,1.00379507881778,70.0255635383019,69,71,1.1,0.9
UNKNOWN128942,515,1,11.576429,0,0,0,71,0.980150595259332,69.4071101374143,115,71,1.1,0.9
UNKNOWN128943,516,1,18.363751,0,0,0,71,0.977077093980401,69.6397268068648,115,71,1.1,0.9
UNKNOWN128944,517,1,6.843556,0,0,0,70,1.00480358074378,77.0763120485541,115,70,1.1,0.9
UNKNOWN129008,518,1,11.57643,0,0,0,71,0.977960758906244,69.3225605314387,115,71,1.1,0.9
UNKNOWN129009,519,1,18.363751,0,0,0,71,0.973817795830568,70.0514804070083,115,71,1.1,0.9
UNKNOWN129010,520,1,8.257082,0,0,0,71,1.01559297162274,71.7515344485446,69,71,1.1,0.9
UNKNOWN129013,521,1,3.421778,0,0,0,70,0.997168527926653,74.735848130643,115,70,1.1,0.9
UNKNOWN129014,522,1,7.735927,0,0,0,70,0.997133752588151,72.144267756333,115,70,1.1,0.9
UNKNOWN129016,523,1,10.265335,0,0,0,70,1.00793408802282,78.2116887785638,115,70,1.1,0.9
UNKNOWN129024,524,1,22.492293,0,0,0,71,1.00823442952731,69.2277208338857,115,71,1.1,0.9
UNKNOWN129025,525,1,8.257082,0,0,0,71,1.00837884114746,68.8174448761025,115,71,1.1,0.9
UNKNOWN129050,526,2,0.933904,0,0,0,69,1.02,72.8270199803042,69,69,1.1,0.9
UNKNOWN129051,527,1,8.257082,0,0,0,71,0.997970302729887,68.1037970635689,69,71,1.1,0.9
UNKNOWN129083,528,1,18.363751,0,0,0,71,0.997299146008114,67.1158606016594,115,71,1.1,0.9
UNKNOWN129084,529,1,0,0,0,0,71,1.00998463561638,70.4520977644761,345,71,1.1,0.9
UNKNOWN129085,530,1,0,0,0,0,71,1.01024571139868,68.824129402087,345,71,1.1,0.9
UNKNOWN129086,531,1,18.363753,0,0,0,71,0.996303352965204,59.6755808948271,115,71,1.1,0.9
UNKNOWN129087,532,1,18.363751,0,0,0,71,0.990156619721666,58.5155813195691,115,71,1.1,0.9
UNKNOWN129090,533,1,8.257082,0,0,0,71,1.0105647194916,76.6582993217251,69,71,1.1,0.9
UNKNOWN129091,534,1,8.257082,0,0,0,71,1.01079964261388,77.1677103719478,69,71,1.1,0.9
SHOEMAKER,535,2,39.518392,0,0,0,71,1.02,80.2479423588354,138,71,1.1,0.9
UNKNOWN129096,536,1,55.685759,0,0,0,71,1.01703231747539,78.9234636827724,138,71,1.1,0.9
UNKNOWN129097,537,1,36.727503,0,0,0,71,1.00652619547246,69.9921736059666,115,71,1.1,0.9
UNKNOWN129098,538,1,18.363751,0,0,0,71,1.00779497631846,70.6410393610598,115,71,1.1,0.9
UNKNOWN129103,539,2,12.385622,0,0,1.462161,71,1.01999977398181,78.8076533313195,69,71,1.1,0.9
UNKNOWN129104,540,1,4.128541,0,0,0,71,1.02138215602048,79.1168034484164,69,71,1.1,0.9
UNKNOWN129106,541,1,9.28096,0,0,0,71,1.01994560812889,80.2240740681303,138,71,1.1,0.9
UNKNOWN129107,542,1,9.181876,0,0,0,71,1.01058336802518,71.7100988601002,115,71,1.1,0.9
UNKNOWN129109,543,1,9.181876,0,0,0,71,1.01026296704493,71.5960321083051,115,71,1.1,0.9
UNKNOWN129110,544,1,18.561921,0,0,0,71,1.0187194658494,79.640039529302,138,71,1.1,0.9
UNKNOWN129111,545,1,9.28096,0,0,0,71,1.01753916380552,79.1341082452407,138,71,1.1,0.9
UNKNOWN129180,546,1,24.523534,0,0,0,71,1.01616309580295,78.2211821547505,138,71,1.1,0.9
UNKNOWN129188,547,1,0,0,0,0,72,1.01361617778596,64.6319950993478,345,72,1.1,0.9
UNKNOWN129191,548,1,13.912043,0,0,0,75,1.00846630377818,25.5609690879032,69,75,1.1,0.9
UNKNOWN129193,549,1,27.82408,0,0,0,75,1.00370894816049,31.8080815394827,69,75,1.1,0.9
UNKNOWN129197,550,1,106.009746,0,0,0,75,1.01714405695831,52.4924576694741,138,75,1.1,0.9
UNKNOWN129199,551,1,13.912043,0,0,0,75,1.02086326292088,48.956715975016,69,75,1.1,0.9
UNKNOWN129212,552,1,50.945902,0,0,0,75,1.02069923281338,53.9690579194123,138,75,1.1,0.9
UNKNOWN129228,553,1,55.982059,0,0,0,75,1.02159327477056,54.5946586329352,138,75,1.1,0.9
UNKNOWN129497,554,1,82.220167,0,0,0,75,1.0188945355788,53.1641214640272,138,75,1.1,0.9
UNKNOWN129500,555,1,46.577513,0,0,0,75,1.019598686209,53.6580045333671,138,75,1.1,0.9
WEST ASTORIA,556,1,363.64367,0,0,0,74,1.01883213821924,48.2376860809193,138,74,1.1,0.9
EAST ASTORIA,557,1,0,0,0,0,74,1.01996364962652,63.2676823726995,345,74,1.1,0.9
UNKNOWN129549,558,1,6.956021,0,0,0,75,1.02682055850147,47.4746235908485,69,75,1.1,0.9
UNKNOWN129551,559,1,33.388898,0,0,0,75,1.01882440711813,45.2645360173544,69,75,1.1,0.9
SHORE RD,560,1,0,0,0,0,75,1.01437016865172,62.3916779968213,345,75,1.1,0.9
UNKNOWN129558,561,1,27.824086,0,0,0,75,1.0099962436754,52.8359444210956,69,75,1.1,0.9
UNKNOWN129567,562,2,0,0,0,0,68,1.02,109.350582029964,230,68,1.1,0.9
UNKNOWN129569,563,2,3.421778,0,0,0,70,1.02,81.9715538371396,115,70,1.1,0.9
UNKNOWN129570,564,2,6.956021,0,0,0,75,1.01,57.2946413585574,69,75,1.1,0.9
UNKNOWN129572,565,1,94.713998,0,0,0,73,1.00019584566963,60.4338616872025,115,73,1.1,0.9
UNKNOWN129573,566,1,2.525008,0,0,0,65,1.01817737107635,96.3472444805177,115,65,1.1,0.9
UNKNOWN129899,567,1,34.780106,0,0,0,75,1.0221714355581,52.714128127832,69,75,1.1,0.9
UNKNOWN129909,568,1,13.912043,0,0,0,75,1.01565690539109,53.0813352015421,69,75,1.1,0.9
UNKNOWN129912,569,1,20.868061,0,0,0,75,1.02765766186652,55.545987274322,69,75,1.1,0.9
UNKNOWN129913,570,2,113.234246,0,0,2.221991,74,1.02,43.1613613812569,69,74,1.1,0.9
UNKNOWN129920,571,2,0,0,0,0,74,1.02,80.2805787698761,345,74,1.1,0.9
UNKNOWN129921,572,1,31.274268,0,0,0,75,1.01977219447117,54.5705717533902,138,75,1.1,0.9
UNKNOWN130013,573,2,2.077003,0,0,0,69,1.02,98.5769373340191,115,69,1.1,0.9
UNKNOWN130113,574,1,2.077003,0,0,0,69,1.0166782792946,82.9975657303831,115,69,1.1,0.9
FAY STREET,575,1,4.178645,0,0,0,67,1.0118928569162,97.9322123273756,115,67,1.1,0.9
UNKNOWN130191,576,1,2.077003,0,0,0,69,1.01469351453553,89.7975550688979,115,69,1.1,0.9
UNKNOWN130194,577,2,13.912043,0,0,0,75,1.01,54.0553485981637,69,75,1.1,0.9
UNKNOWN130195,578,1,13.912043,0,0,0,75,1.00956054811922,53.9605796829561,69,75,1.1,0.9
UNKNOWN130198,579,1,2.077003,0,0,0,69,1.00741662304167,100.46209021281,115,69,1.1,0.9
NEWBRIDGE ROAD,580,2,0,0,0,0,75,1.03,60.3411870501811,345,75,1.1,0.9
OYSTER BAY,581,1,16.694449,0,0,0,75,1.00816792239338,55.9028833131802,69,75,1.1,0.9
ORCHARD,582,1,15.303247,0,0,0,75,1.01071436024687,57.7620751090339,69,75,1.1,0.9
GLEN HEAD,583,1,13.912043,0,0,0,75,1.01304457080388,58.4166229537057,69,75,1.1,0.9
WOODBURY,584,1,22.259268,0,0,0,75,1.0150740590775,54.9814767564564,69,75,1.1,0.9
BAR BEACH,585,1,13.912043,0,0,0,75,1.0123802826979,58.1726079265125,69,75,1.1,0.9
PORT WASHINGTON,586,1,13.912043,0,0,0,75,1.00546716662232,55.9712082636331,69,75,1.1,0.9
WHITESIDE,587,2,13.912043,0,0,35.535964,75,1.0153126102519,48.9340661646811,69,75,1.1,0.9
WEST HEMPSTEAD,588,1,27.824086,0,0,0,75,1.01444403332994,50.2713835976163,69,75,1.1,0.9
EAST GARDEN CITY,589,1,0,0,0,500,75,1.03143719786666,60.6134346028017,345,75,1.1,0.9
DUFFY AVENUE CONVERTER STATION,590,1,0,0,0,0,75,1.0299280415179,60.2851907741339,345,75,1.1,0.9
LEVITTOWN,591,1,48.692143,0,0,0,75,1.02270443739395,54.7410255093562,69,75,1.1,0.9
NEW SOUTH ROAD,592,1,20.868063,0,0,0,75,1.02532440217964,55.7215441003572,69,75,1.1,0.9
DUNWOODIE,593,1,0,0,0,0,72,1.01389192743786,63.1142380105818,345,72,1.1,0.9
SPRAIN BROOK,594,1,0,0,0,0,72,1.01417917574444,63.147063349365,345,72,1.1,0.9
BRUCKNER,595,1,440.642929,0,0,0,74,1.01807743284785,48.1249596608515,138,74,1.1,0.9
TREMONT,596,1,522.495079,0,0,0,74,1.00897499038699,47.5595045297604,138,74,1.1,0.9
NORTH QUEENS,597,1,636.376381,0,0,0,74,1.0192786876312,48.2024266558822,138,74,1.1,0.9
GREAT NECK,598,1,27.824086,0,0,0,75,1.0015641830949,53.4042690148827,69,75,1.1,0.9
PARKCHESTER,599,1,272.732735,0,0,0,74,1.00900872167547,47.5591409798559,138,74,1.1,0.9
EAST 179TH STREET,600,1,557.759476,0,0,0,74,1.01357710836871,47.8466823353664,138,74,1.1,0.9
CORONA,601,1,555.171251,0,0,0,74,1.01631923111305,47.9994946288315,138,74,1.1,0.9
YAPHANK,602,1,6.956021,0,0,0,75,1.01766026335342,52.0159206331326,69,75,1.1,0.9
WEST YAPHANK,603,1,47.106174,0,0,0,75,1.00357542167577,51.6782660964733,69,75,1.1,0.9
HOLTSVILLE,604,1,31.719455,0,0,0,75,1.00509109907927,53.9665633418343,69,75,1.1,0.9
NORTH BELLPORT,605,1,13.912043,0,0,0,75,1.00297894388326,50.930619449518,69,75,1.1,0.9
EASTPORT,606,1,20.868063,0,0,0,75,1.00911927241559,44.0334230799876,69,75,1.1,0.9
MORICHES,607,1,13.912043,0,0,0,75,1.0157541776636,47.4792648668495,69,75,1.1,0.9
HOLBROOK,608,1,148.803186,0,0,0,75,1.01961674519455,53.6642984337303,138,75,1.1,0.9
HOLTSVILLE MGU,609,2,50.639832,0,0,-96.778244,75,1.01,56.2482902097148,69,75,1.1,0.9
UNKNOWN135465,610,1,6.956021,0,0,0,75,1.00360459036262,51.539165444424,69,75,1.1,0.9
UNKNOWN135467,611,1,27.712789,0,0,0,75,1.0037720903156,51.5609325466729,69,75,1.1,0.9
UNKNOWN135468,612,1,6.956021,0,0,0,75,1.00354978217726,51.674941786128,69,75,1.1,0.9
TAP135472,613,1,13.912043,0,0,0,75,1.00801187908831,53.5413913822246,69,75,1.1,0.9
BRENTWOOD,614,1,41.736126,0,0,0,75,1.01821308583416,54.0391697282444,69,75,1.1,0.9
BRIGHTWATERS,615,1,20.868063,0,0,0,75,1.00278254078295,51.9079486873821,69,75,1.1,0.9
GREAT RIVER,616,1,13.912043,0,0,0,75,1.00262835765758,51.4746890151791,69,75,1.1,0.9
WATSON,617,1,13.912043,0,0,0,75,1.00102981965116,51.4324148437862,69,75,1.1,0.9
PINES,618,1,13.912043,0,0,0,75,1.01429784729521,53.2862710284805,69,75,1.1,0.9
RONKONKOMA,619,1,19.671626,0,0,0,75,1.01915976690454,53.6267415488293,138,75,1.1,0.9
TAP135490,620,1,34.780106,0,0,0,75,1.00698307460942,46.2631283363796,69,75,1.1,0.9
TAP135492,621,1,29.215288,0,0,0,75,1.01373876041873,43.0454890228804,69,75,1.1,0.9
TAP135493,622,1,29.215288,-10.277147,0,0,75,1.01831578724241,43.7393713636297,69,75,1.1,0.9
FAR ROCKAWAY,623,1,202.203989,0,0,0,74,1.01991136633069,42.4314972255938,69,74,1.1,0.9
HEWLETT,624,1,34.780106,0,0,0,75,1.01697846989837,43.5568200405859,69,75,1.1,0.9
CORONA AVE,625,1,13.912043,0,0,0,75,1.00876518154547,47.0758191127288,69,75,1.1,0.9
VALLEY STREAM,626,1,36.171308,0,0,0,75,1.00692747116534,46.2027918269755,69,75,1.1,0.9
WOODMERE,627,1,6.956021,0,0,0,75,1.01372160789031,43.0432783336954,69,75,1.1,0.9
JAMAICA,628,1,460.378027,0,0,0,74,1.01483952913308,48.0560703517344,138,74,1.1,0.9
QUEENSBRIDGE,629,1,454.554605,0,0,0,74,1.01969908476857,48.6457581276787,138,74,1.1,0.9
ROTTERDAM,630,1,0,0,0,0,70,1.01288162345915,87.6529252228218,230,70,1.1,0.9
TAP135560,631,1,10.265335,0,0,0,70,1.01505153002441,81.5124106012217,115,70,1.1,0.9
GROOMS ROAD,632,2,3.421778,0,0,0,70,1.02,83.0625937409671,115,70,1.1,0.9
FRONT STREET,633,1,3.421778,0,0,0,70,1.01231603119547,81.3857083583913,115,70,1.1,0.9
BOYNTONVILLE,634,1,3.421778,0,0,0,70,1.01504917810467,81.5118206246076,115,70,1.1,0.9
TAP135581,635,1,10.265335,0,0,0,70,1.01982308261799,82.94851864392,115,70,1.1,0.9
GENERAL ELECTRIC,636,1,3.421778,0,0,0,70,1.01235655379741,81.4013337550712,115,70,1.1,0.9
EASTOVER,637,1,0,0,0,0,70,1.01281453100166,85.6887274613194,230,70,1.1,0.9
STURGEON POOL,638,1,12.385623,0,0,0,71,1.00961422843053,69.9103932063725,69,71,1.1,0.9
NORTH CATSKILL,639,1,16.514164,0,0,0,71,1.01244021829514,69.5042107501409,69,71,1.1,0.9
LAWRENCEVILLE,640,1,8.257082,0,0,0,71,1.00911328637397,68.0448639007431,69,71,1.1,0.9
SAUGERTIES,641,1,12.385622,0,0,0,71,1.00581975217068,70.418473591378,69,71,1.1,0.9
LINCOLN PARK,642,1,18.363753,0,0,0,71,1.00766142336042,71.5082143964483,115,71,1.1,0.9
EAST KINGSTON,643,1,18.363751,0,0,0,71,1.00561632094484,71.1632954974798,115,71,1.1,0.9
HURLEY AVENUE,644,1,0,0,0,0,71,1.01944237851947,77.4719018420821,345,71,1.1,0.9
MILAN,645,1,27.545625,0,0,0,71,0.998284515245181,70.2822846229233,115,71,1.1,0.9
RHINEBECK,646,1,18.363751,0,0,0,71,1.00196250838777,70.6301324549642,115,71,1.1,0.9
OHIOVILLE,647,1,29.940182,0,0,0,71,1.00425042472434,69.4579332748953,115,71,1.1,0.9
HIGHLAND,648,1,18.363751,0,0,0,71,1.00409950039668,68.7928557255546,115,71,1.1,0.9
REYNOLDS HILL,649,1,39.534909,0,0,0,71,1.00435405099062,68.7359802853179,115,71,1.1,0.9
INWOOD AVE,650,1,8.257082,0,0,0,71,0.997593676444319,66.9462746516699,69,71,1.1,0.9
PLEASANT VALLEY,651,2,0,0,0,0,71,1.01,70.4554970125038,345,71,1.1,0.9
MANCHESTER,652,1,6.968977,0,0,0,71,1.0002616512584,67.9559452306612,115,71,1.1,0.9
DASHVILLE,653,1,4.128541,0,0,0,71,1.0072205273715,69.6114676178358,69,71,1.1,0.9
TAP135687,654,1,12.385622,0,0,0,71,1.0097581961208,68.0585458467667,69,71,1.1,0.9
TAP135688,655,1,16.514164,0,0,0,71,1.00432759996908,69.962514809217,69,71,1.1,0.9
TAP135690,656,1,10.265335,0,0,0,70,0.99717058207077,74.7363214026089,115,70,1.1,0.9
TAP135691,657,1,10.265335,0,0,0,70,0.99695650768372,72.1318950777924,115,70,1.1,0.9
TAP135692,658,1,10.265335,0,0,0,70,0.997427131273288,72.3466524937563,115,70,1.1,0.9
TAP135693,659,1,27.545625,0,0,0,71,0.998308527428973,70.2804952774025,115,71,1.1,0.9
TAP135694,660,1,27.545625,0,0,0,71,0.99824112657314,70.288797669979,115,71,1.1,0.9
TAP135696,661,1,16.514164,0,0,0,71,0.997599380123377,66.9463556474931,69,71,1.1,0.9
TAP135697,662,1,16.514164,0,0,0,71,0.997607275814358,66.9487992761865,69,71,1.1,0.9
TAP135701,663,1,12.385622,0,0,0,71,1.00731006416242,69.6230846562637,69,71,1.1,0.9
CRARYVILLE,664,1,6.843556,0,0,0,70,1.0000862556513,75.0829248085395,115,70,1.1,0.9
CHURCHTOWN,665,1,10.265335,0,0,0,70,0.998573519162816,74.0336606785793,115,70,1.1,0.9
SMITHFIELD,666,1,16.150855,0,0,0,71,0.995395513678489,64.5583507911671,115,71,1.1,0.9
UNKNOWN135706,667,1,12.385622,0,0,0,71,1.00536620688886,70.3243696287899,69,71,1.1,0.9
UNKNOWN135707,668,1,6.843556,0,0,0,70,0.999034765098343,74.5382451583814,115,70,1.1,0.9
UNKNOWN135708,669,1,6.843556,0,0,0,70,0.999058547876032,74.5548188678638,115,70,1.1,0.9
UNKNOWN135710,670,1,4.128541,0,0,0,71,0.9973307697876,66.9123419345075,69,71,1.1,0.9
UNKNOWN135711,671,1,6.968977,0,0,0,71,0.995921631202278,63.8818755057047,115,71,1.1,0.9
UNKNOWN135712,672,1,6.843556,0,0,0,70,0.999740872844365,74.8896151940352,115,70,1.1,0.9
DEADEND135713,673,1,6.843556,0,0,0,70,0.999740797900393,74.8881472635448,115,70,1.1,0.9
TAP135714,674,1,10.265335,0,0,0,70,0.9997403254794,74.8867150817716,115,70,1.1,0.9
TAP135715,675,1,10.265335,0,0,0,70,0.999875959988189,74.8466928714139,115,70,1.1,0.9
TAP135765,676,1,10.265335,0,0,0,70,1.01919102598047,82.4330168633178,115,70,1.1,0.9
TAP135766,677,1,10.265335,0,0,0,70,1.01935740044462,82.5741750252726,115,70,1.1,0.9
TAP135767,678,1,10.265335,0,0,0,70,1.01993650267461,82.8629513652335,115,70,1.1,0.9
TAP135768,679,1,10.265335,0,0,0,70,1.01936758159183,82.0619647462107,115,70,1.1,0.9
TAP135769,680,1,10.265335,0,0,0,70,1.01990869161902,83.438655457717,115,70,1.1,0.9
TAP135770,681,1,10.265335,0,0,0,70,1.01988752953469,82.0199618736022,115,70,1.1,0.9
TAP135771,682,2,6.843556,0,0,0,70,1.02,83.4814155012502,115,70,1.1,0.9
MOHICAN,683,2,20.530669,0,0,0,70,1.02,82.074409778734,115,70,1.1,0.9
BUTLER,684,1,10.265335,0,0,0,70,1.01982719493938,82.3136374025988,115,70,1.1,0.9
UNKNOWN135780,685,2,3.421778,0,0,0,70,1.02,82.3700163702131,115,70,1.1,0.9
TAP135793,686,1,10.265335,0,0,0,70,1.01297869770809,80.8672657752061,115,70,1.1,0.9
TAP135794,687,1,10.265335,0,0,0,70,1.0106318117628,80.3516265023121,115,70,1.1,0.9
TAP135795,688,1,10.265335,0,0,0,70,1.01063157040788,80.3516090726335,115,70,1.1,0.9
TAP135796,689,1,10.265335,0,0,0,70,1.01180683148934,80.6564978270558,115,70,1.1,0.9
TAP135797,690,1,10.265335,0,0,0,70,1.01180781351042,80.6578298814937,115,70,1.1,0.9
TAP135798,691,1,10.265335,0,0,0,70,1.00967119899313,80.0984355685734,115,70,1.1,0.9
TAP135799,692,1,10.265335,0,0,0,70,1.00967262156635,80.0988371993184,115,70,1.1,0.9
BATTENKILL,693,2,10.265335,0,0,0,70,1.02,81.7458536994036,115,70,1.1,0.9
WEST MILTON,694,1,6.843556,0,0,0,70,1.01264051539567,80.7825384387931,115,70,1.1,0.9
BROOK ROAD,695,1,6.843556,0,0,0,70,1.01062781721244,80.350705747185,115,70,1.1,0.9
TAP135822,696,1,10.265335,0,0,0,70,1.0115874080556,81.3917017747004,115,70,1.1,0.9
TAP135823,697,1,10.265335,0,0,0,70,1.01152173485778,81.3748271277157,115,70,1.1,0.9
TAP135824,698,1,10.265335,0,0,0,70,1.01660082164998,82.2645412518412,115,70,1.1,0.9
TAP135825,699,1,10.265335,0,0,0,70,1.01668668633411,82.2854248717066,115,70,1.1,0.9
TAP135826,700,1,10.265335,0,0,0,70,1.01710466090074,82.1862399113974,115,70,1.1,0.9
TAP135828,701,1,10.265335,0,0,0,70,1.01214035642883,81.5761453314376,115,70,1.1,0.9
BURDECK STREET,702,1,6.843556,0,0,0,70,1.01154221671145,81.3799995977325,115,70,1.1,0.9
CURRY ROAD,703,1,6.843556,0,0,0,70,1.01209157951445,81.4766577686605,115,70,1.1,0.9
NORTH TROY,704,1,13.687113,0,0,0,70,1.01709956128583,82.1843021487576,115,70,1.1,0.9
JOHNSON ROAD,705,2,10.265335,0,0,0,70,1.02,82.8965583563649,115,70,1.1,0.9
MAPLEWOOD,706,1,13.687113,0,0,0,70,1.01891829978559,82.7746411472269,115,70,1.1,0.9
TAP135859,707,1,10.265335,0,0,0,70,1.0165336530558,82.4545993307278,115,70,1.1,0.9
TAP135860,708,1,10.265335,0,0,0,70,1.0168318867161,82.7891986869955,115,70,1.1,0.9
TAP135861,709,1,10.265335,0,0,0,70,1.01682837277302,82.7893631891327,115,70,1.1,0.9
TAP135862,710,1,10.265335,0,0,0,70,1.0133933914891,82.1540668104571,115,70,1.1,0.9
TAP135864,711,1,10.265335,0,0,0,70,1.01461274425017,82.3464715135569,115,70,1.1,0.9
...